Version 4
SHEET 1 2056 1476
WIRE 688 240 64 240
WIRE 576 304 528 304
WIRE 688 304 688 240
WIRE 688 304 640 304
WIRE 752 304 688 304
WIRE 848 304 816 304
WIRE 64 384 64 240
WIRE 848 400 848 304
WIRE 1040 400 848 400
WIRE 1344 400 1040 400
WIRE 1664 400 1600 400
WIRE 1856 400 1664 400
WIRE 1936 400 1856 400
WIRE 528 416 528 304
WIRE 528 416 480 416
WIRE 480 448 480 416
WIRE 1040 448 1040 400
WIRE 1664 464 1664 400
WIRE 1936 464 1936 400
WIRE 1856 480 1856 400
WIRE 528 528 528 416
WIRE 576 528 528 528
WIRE 688 528 640 528
WIRE 752 528 688 528
WIRE 848 528 848 400
WIRE 848 528 816 528
WIRE 1040 560 1040 512
WIRE 1472 576 1472 496
WIRE 1664 576 1664 544
WIRE 1664 576 1472 576
WIRE 1792 576 1664 576
WIRE 64 608 64 464
WIRE 688 608 688 528
WIRE 688 608 64 608
WIRE 1856 608 1856 544
WIRE 1936 608 1936 544
WIRE 1664 624 1664 576
WIRE 1792 640 1792 576
WIRE 1664 752 1664 704
WIRE 1792 752 1792 704
WIRE 1664 1024 1664 976
WIRE 1216 1072 1216 1024
WIRE 688 1104 64 1104
WIRE 1440 1120 1440 1088
WIRE 1664 1136 1664 1104
WIRE 1664 1136 1600 1136
WIRE 1760 1136 1664 1136
WIRE 1920 1152 1920 1088
WIRE 560 1168 528 1168
WIRE 688 1168 688 1104
WIRE 688 1168 624 1168
WIRE 736 1168 688 1168
WIRE 848 1168 800 1168
WIRE 1760 1168 1760 1136
WIRE 1840 1168 1840 1088
WIRE 1216 1184 1216 1152
WIRE 1312 1184 1216 1184
WIRE 1600 1184 1600 1136
WIRE 1600 1184 1568 1184
WIRE 1664 1184 1664 1136
WIRE 992 1200 992 1152
WIRE 64 1248 64 1104
WIRE 528 1280 528 1168
WIRE 528 1280 480 1280
WIRE 848 1296 848 1168
WIRE 992 1296 992 1264
WIRE 992 1296 848 1296
WIRE 1312 1296 992 1296
WIRE 1664 1296 1664 1264
WIRE 1664 1296 1568 1296
WIRE 1760 1296 1760 1232
WIRE 1760 1296 1664 1296
WIRE 1840 1296 1840 1232
WIRE 1840 1296 1760 1296
WIRE 1920 1296 1920 1232
WIRE 1920 1296 1840 1296
WIRE 480 1312 480 1280
WIRE 528 1392 528 1280
WIRE 560 1392 528 1392
WIRE 688 1392 624 1392
WIRE 736 1392 688 1392
WIRE 848 1392 848 1296
WIRE 848 1392 800 1392
WIRE 64 1472 64 1328
WIRE 688 1472 688 1392
WIRE 688 1472 64 1472
FLAG 480 448 0
FLAG 1040 560 0
FLAG 1936 608 0
FLAG 1664 752 0
FLAG 1792 752 0
FLAG 1856 608 0
FLAG 480 1312 0
FLAG 992 1152 0
FLAG 1440 1088 0
FLAG 1216 1024 0
FLAG 1664 976 0
FLAG 1840 1088 0
FLAG 1920 1088 0
SYMBOL diode 576 544 R270
WINDOW 0 32 32 VTop 2
WINDOW 3 0 32 VBottom 2
SYMATTR InstName D1
SYMATTR Value RR601BM4S
SYMBOL diode 576 320 R270
WINDOW 0 32 32 VTop 2
WINDOW 3 0 32 VBottom 2
SYMATTR InstName D2
SYMATTR Value RR601BM4S
SYMBOL diode 752 544 R270
WINDOW 0 32 32 VTop 2
WINDOW 3 0 32 VBottom 2
SYMATTR InstName D3
SYMATTR Value RR601BM4S
SYMBOL diode 752 320 R270
WINDOW 0 32 32 VTop 2
WINDOW 3 0 32 VBottom 2
SYMATTR InstName D4
SYMATTR Value RR601BM4S
SYMBOL cap 1024 448 R0
SYMATTR InstName C1
SYMATTR Value 22000µ
SYMBOL PowerProducts/LT1085 1472 400 R0
SYMATTR InstName U1
SYMBOL res 1920 448 R0
SYMATTR InstName R1
SYMATTR Value {12/3}
SYMBOL res 1648 448 R0
SYMATTR InstName R2
SYMATTR Value 240
SYMBOL res 1648 608 R0
SYMATTR InstName R3
SYMATTR Value 2064
SYMBOL cap 1776 640 R0
SYMATTR InstName C2
SYMATTR Value 10µ
SYMBOL cap 1840 480 R0
SYMATTR InstName C3
SYMATTR Value 150µ
SYMBOL PowerProducts/LT1185 1440 1232 R0
SYMATTR InstName U2
SYMBOL diode 800 1408 M270
WINDOW 0 32 32 VTop 2
WINDOW 3 0 32 VBottom 2
SYMATTR InstName D5
SYMATTR Value RR601BM4S
SYMBOL diode 800 1184 M270
WINDOW 0 32 32 VTop 2
WINDOW 3 0 32 VBottom 2
SYMATTR InstName D6
SYMATTR Value RR601BM4S
SYMBOL diode 624 1408 M270
WINDOW 0 32 32 VTop 2
WINDOW 3 0 32 VBottom 2
SYMATTR InstName D7
SYMATTR Value RR601BM4S
SYMBOL diode 624 1184 M270
WINDOW 0 32 32 VTop 2
WINDOW 3 0 32 VBottom 2
SYMATTR InstName D8
SYMATTR Value RR601BM4S
SYMBOL cap 976 1200 R0
SYMATTR InstName C4
SYMATTR Value 22000µ
SYMBOL res 1200 1056 R0
SYMATTR InstName R4
SYMATTR Value 4.3k
SYMBOL res 1648 1008 R0
SYMATTR InstName R5
SYMATTR Value 2.37k
SYMBOL res 1648 1168 R0
SYMATTR InstName R6
SYMATTR Value 9.63k
SYMBOL res 1904 1136 R0
SYMATTR InstName R7
SYMATTR Value {12/3}
SYMBOL cap 1824 1168 R0
SYMATTR InstName C5
SYMATTR Value 150µ
SYMBOL cap 1744 1168 R0
SYMATTR InstName C6
SYMATTR Value 0.05µ
SYMBOL voltage 64 1232 R0
SYMATTR InstName V1
SYMATTR Value SINE(0 {Vsec*sqrt(2)} 50)
SYMBOL voltage 64 368 R0
SYMATTR InstName V2
SYMATTR Value SINE(0 {Vsec*sqrt(2)} 50)
TEXT -240 104 Left 2 !.options plotwinsize=0\n.option numdgt=7\n.tran 0 500m 0 10u\n.param Vsec = 12
